opendss/LV_Transformers.dss
New Transformer.TransLV_CHECK INN SIGNATURE HOTEL Phases=3 Windings=2
~ Buses=[Bus_16, Bus_CHECK INN SIGNATURE HOTEL_Consumer] kVA=200 kV=[10, 0.4]
New Transformer.TransLV_URBAN SHELTER CLAUSTER 1 Phases=3 Windings=2
~ Buses=[Bus_None, Bus_URBAN SHELTER CLAUSTER 1_Consumer] kVA=1000 kV=[10, 0.4]
New Transformer.TransLV_Lingo Estate Saraha 4 DT 1 Phases=3 Windings=2
~ Buses=[Bus_None, Bus_Lingo Estate Saraha 4 DT 1_Consumer] kVA=300 kV=[10, 0.4]
New Transformer.TransLV_Pengansan Estate DT 2 Phases=3 Windings=2
~ Buses=[Bus_None, Bus_Pengansan Estate DT 2_Consumer] kVA=300 kV=[10, 0.4]
New Transformer.TransLV_Buchanan 3 DT Phases=3 Windings=2
~ Buses=[Bus_12, Bus_Buchanan 3 DT_Consumer] kVA=500 kV=[10, 0.4]
New Transformer.TransLV_BRIA STREET Phases=3 Windings=2
~ Buses=[Bus_7, Bus_BRIA STREET_Consumer] kVA=500 kV=[10, 0.4]
New Transformer.TransLV_LIBREVILLE  DT 2 (34 LIBREVILLE STREET) Phases=3 Windings=2
~ Buses=[Bus_14, Bus_LIBREVILLE  DT 2 (34 LIBREVILLE STREET)_Consumer] kVA=500 kV=[10, 0.4]
New Transformer.TransLV_FANDRIANA 2 DT Phases=3 Windings=2
~ Buses=[Bus_9, Bus_FANDRIANA 2 DT_Consumer] kVA=500 kV=[10, 0.4]
New Transformer.TransLV_FCDA QUARTERS DT 2 (KASHIM IBRAHIM WAY) Phases=3 Windings=2
~ Buses=[Bus_14, Bus_FCDA QUARTERS DT 2 (KASHIM IBRAHIM WAY)_Consumer] kVA=500 kV=[10, 0.4]
New Transformer.TransLV_Damangasa3 Phases=3 Windings=2
~ Buses=[Bus_None, Bus_Damangasa3_Consumer] kVA=500 kV=[10, 0.4]
New Transformer.TransLV_COMPACT S/S BY NO 9 KAMPALA STREET WUSE 2 Phases=3 Windings=2
~ Buses=[Bus_6, Bus_COMPACT S/S BY NO 9 KAMPALA STREET WUSE 2_Consumer] kVA=500 kV=[10, 0.4]
New Transformer.TransLV_PITTERS BURG  DT Phases=3 Windings=2
~ Buses=[Bus_9, Bus_PITTERS BURG  DT_Consumer] kVA=500 kV=[10, 0.4]
New Transformer.TransLV_Ecobank Cadastral Branch (Public) DT Phases=3 Windings=2
~ Buses=[Bus_6, Bus_Ecobank Cadastral Branch (Public) DT_Consumer] kVA=500 kV=[10, 0.4]
New Transformer.TransLV_SANTANA COMPACT   DT Phases=3 Windings=2
~ Buses=[Bus_9, Bus_SANTANA COMPACT   DT_Consumer] kVA=500 kV=[10, 0.4]
New Transformer.TransLV_Birao 1 Phases=3 Windings=2
~ Buses=[Bus_7, Bus_Birao 1_Consumer] kVA=500 kV=[10, 0.4]
New Transformer.TransLV_Kumasi 4 DT Phases=3 Windings=2
~ Buses=[Bus_16, Bus_Kumasi 4 DT_Consumer] kVA=500 kV=[10, 0.4]
New Transformer.TransLV_Monrovia transformer 4 Phases=3 Windings=2
~ Buses=[Bus_13, Bus_Monrovia transformer 4_Consumer] kVA=500 kV=[10, 0.4]
New Transformer.TransLV_Tapeta 1 (20 Tapeta Street) Phases=3 Windings=2
~ Buses=[Bus_7, Bus_Tapeta 1 (20 Tapeta Street)_Consumer] kVA=500 kV=[10, 0.4]
New Transformer.TransLV_Lingu 2 compact DT Phases=3 Windings=2
~ Buses=[Bus_14, Bus_Lingu 2 compact DT_Consumer] kVA=500 kV=[10, 0.4]
New Transformer.TransLV_AGADES 1 (50 AGADES STREET BY KFC Phases=3 Windings=2
~ Buses=[Bus_16, Bus_AGADES 1 (50 AGADES STREET BY KFC_Consumer] kVA=500 kV=[10, 0.4]
New Transformer.TransLV_LIBREVILLE DT 1 ( NO 52 LIBREVILLE STREET) Phases=3 Windings=2
~ Buses=[Bus_14, Bus_LIBREVILLE DT 1 ( NO 52 LIBREVILLE STREET)_Consumer] kVA=500 kV=[10, 0.4]
New Transformer.TransLV_Blantyre DT Phases=3 Windings=2
~ Buses=[Bus_7, Bus_Blantyre DT_Consumer] kVA=500 kV=[10, 0.4]
New Transformer.TransLV_LUNGI 2 DT Phases=3 Windings=2
~ Buses=[Bus_16, Bus_LUNGI 2 DT_Consumer] kVA=500 kV=[10, 0.4]
New Transformer.TransLV_Dakala DT Phases=3 Windings=2
~ Buses=[Bus_11, Bus_Dakala DT_Consumer] kVA=500 kV=[10, 0.4]
New Transformer.TransLV_MISRATAH 2  DT Phases=3 Windings=2
~ Buses=[Bus_9, Bus_MISRATAH 2  DT_Consumer] kVA=500 kV=[10, 0.4]
New Transformer.TransLV_Old Sterling Bank Compact DT  (Wuse Market ) Phases=3 Windings=2
~ Buses=[Bus_14, Bus_Old Sterling Bank Compact DT  (Wuse Market )_Consumer] kVA=500 kV=[10, 0.4]
New Transformer.TransLV_PREMIER SCHOOL (NDJAMENA CRESCENT) Phases=3 Windings=2
~ Buses=[Bus_14, Bus_PREMIER SCHOOL (NDJAMENA CRESCENT)_Consumer] kVA=500 kV=[10, 0.4]
New Transformer.TransLV_BUJUMBURA DT (10 BUJUMBURA STREET) Phases=3 Windings=2
~ Buses=[Bus_14, Bus_BUJUMBURA DT (10 BUJUMBURA STREET)_Consumer] kVA=500 kV=[10, 0.4]
New Transformer.TransLV_Monrovia DT 2 Phases=3 Windings=2
~ Buses=[Bus_13, Bus_Monrovia DT 2_Consumer] kVA=500 kV=[10, 0.4]
New Transformer.TransLV_Yalinga DT1 Phases=3 Windings=2
~ Buses=[Bus_7, Bus_Yalinga DT1_Consumer] kVA=500 kV=[10, 0.4]
New Transformer.TransLV_DAMAGAZA DT 2 Phases=3 Windings=2
~ Buses=[Bus_None, Bus_DAMAGAZA DT 2_Consumer] kVA=500 kV=[10, 0.4]
New Transformer.TransLV_AMAL COURT DT Phases=3 Windings=2
~ Buses=[Bus_9, Bus_AMAL COURT DT_Consumer] kVA=500 kV=[10, 0.4]
New Transformer.TransLV_Kandi close DT Phases=3 Windings=2
~ Buses=[Bus_13, Bus_Kandi close DT_Consumer] kVA=500 kV=[10, 0.4]
New Transformer.TransLV_Kumasi DT 2 Phases=3 Windings=2
~ Buses=[Bus_16, Bus_Kumasi DT 2_Consumer] kVA=500 kV=[10, 0.4]
New Transformer.TransLV_NO 12, PARAKOU STREET   DT Phases=3 Windings=2
~ Buses=[Bus_11, Bus_NO 12, PARAKOU STREET   DT_Consumer] kVA=200 kV=[10, 0.4]
New Transformer.TransLV_Lobito 2 Phases=3 Windings=2
~ Buses=[Bus_5, Bus_Lobito 2_Consumer] kVA=500 kV=[10, 0.4]
New Transformer.TransLV_CASABLANCA DT Phases=3 Windings=2
~ Buses=[Bus_9, Bus_CASABLANCA DT_Consumer] kVA=500 kV=[10, 0.4]
New Transformer.TransLV_FCDA QUARTERS 46 Aminu Kano Crescent Phases=3 Windings=2
~ Buses=[Bus_12, Bus_FCDA QUARTERS 46 Aminu Kano Crescent_Consumer] kVA=500 kV=[10, 0.4]
New Transformer.TransLV_INEC DT Phases=3 Windings=2
~ Buses=[Bus_6, Bus_INEC DT_Consumer] kVA=500 kV=[10, 0.4]
New Transformer.TransLV_FCDA Quarters 1 DT Phases=3 Windings=2
~ Buses=[Bus_11, Bus_FCDA Quarters 1 DT_Consumer] kVA=1000 kV=[10, 0.4]
New Transformer.TransLV_Bangui 2 Phases=3 Windings=2
~ Buses=[Bus_2, Bus_Bangui 2_Consumer] kVA=500 kV=[10, 0.4]
New Transformer.TransLV_Bangui 1 Phases=3 Windings=2
~ Buses=[Bus_2, Bus_Bangui 1_Consumer] kVA=500 kV=[10, 0.4]
New Transformer.TransLV_Birao 3 Phases=3 Windings=2
~ Buses=[Bus_7, Bus_Birao 3_Consumer] kVA=500 kV=[10, 0.4]
New Transformer.TransLV_Cairo 3 (16 CAIRO STREET) Phases=3 Windings=2
~ Buses=[Bus_6, Bus_Cairo 3 (16 CAIRO STREET)_Consumer] kVA=630 kV=[10, 0.4]
New Transformer.TransLV_Buchanan 2 DT Phases=3 Windings=2
~ Buses=[Bus_12, Bus_Buchanan 2 DT_Consumer] kVA=500 kV=[10, 0.4]
New Transformer.TransLV_NAIROBI 1 DT Phases=3 Windings=2
~ Buses=[Bus_9, Bus_NAIROBI 1 DT_Consumer] kVA=500 kV=[10, 0.4]
New Transformer.TransLV_SHERIFF COMPACT DT Phases=3 Windings=2
~ Buses=[Bus_11, Bus_SHERIFF COMPACT DT_Consumer] kVA=500 kV=[10, 0.4]
New Transformer.TransLV_Tapeta 2 (8b TAPETA STREET) Phases=3 Windings=2
~ Buses=[Bus_7, Bus_Tapeta 2 (8b TAPETA STREET)_Consumer] kVA=500 kV=[10, 0.4]
New Transformer.TransLV_LIBREVILLE DT 3 (18LIBREVILLE STREET) Phases=3 Windings=2
~ Buses=[Bus_14, Bus_LIBREVILLE DT 3 (18LIBREVILLE STREET)_Consumer] kVA=500 kV=[10, 0.4]
New Transformer.TransLV_Blantyre 2 (14, Blantyre street) Phases=3 Windings=2
~ Buses=[Bus_6, Bus_Blantyre 2 (14, Blantyre street)_Consumer] kVA=500 kV=[10, 0.4]
New Transformer.TransLV_Birao 2 Phases=3 Windings=2
~ Buses=[Bus_7, Bus_Birao 2_Consumer] kVA=500 kV=[10, 0.4]
New Transformer.TransLV_Durban 2 (36 DURBAN STREET) Phases=3 Windings=2
~ Buses=[Bus_6, Bus_Durban 2 (36 DURBAN STREET)_Consumer] kVA=500 kV=[10, 0.4]
New Transformer.TransLV_Seguela 2 (Opposite 6 Seguela Street) Phases=3 Windings=2
~ Buses=[Bus_7, Bus_Seguela 2 (Opposite 6 Seguela Street)_Consumer] kVA=500 kV=[10, 0.4]
New Transformer.TransLV_Parakou 2 DT Phases=3 Windings=2
~ Buses=[Bus_11, Bus_Parakou 2 DT_Consumer] kVA=500 kV=[10, 0.4]
New Transformer.TransLV_GITUA PLAZA Phases=3 Windings=2
~ Buses=[Bus_2, Bus_GITUA PLAZA_Consumer] kVA=500 kV=[10, 0.4]
New Transformer.TransLV_Pakali DT Phases=3 Windings=2
~ Buses=[Bus_16, Bus_Pakali DT_Consumer] kVA=500 kV=[10, 0.4]
New Transformer.TransLV_MONROVIA DT (2 MOROVIA STREET OPPOSITE BON HOTEL) Phases=3 Windings=2
~ Buses=[Bus_13, Bus_MONROVIA DT (2 MOROVIA STREET OPPOSITE BON HOTEL)_Consumer] kVA=500 kV=[10, 0.4]
New Transformer.TransLV_USMAN BIN AFFAN DT Phases=3 Windings=2
~ Buses=[Bus_12, Bus_USMAN BIN AFFAN DT_Consumer] kVA=500 kV=[10, 0.4]
New Transformer.TransLV_Pencon compact Phases=3 Windings=2
~ Buses=[Bus_2, Bus_Pencon compact_Consumer] kVA=0 kV=[10, 0.4]
New Transformer.TransLV_Lobito 3 Phases=3 Windings=2
~ Buses=[Bus_5, Bus_Lobito 3_Consumer] kVA=500 kV=[10, 0.4]
New Transformer.TransLV_Embu compact DT Phases=3 Windings=2
~ Buses=[Bus_16, Bus_Embu compact DT_Consumer] kVA=500 kV=[10, 0.4]
New Transformer.TransLV_YALINGA 2 Phases=3 Windings=2
~ Buses=[Bus_7, Bus_YALINGA 2_Consumer] kVA=500 kV=[10, 0.4]
New Transformer.TransLV_DBM COMPACT  DT Phases=3 Windings=2
~ Buses=[Bus_9, Bus_DBM COMPACT  DT_Consumer] kVA=500 kV=[10, 0.4]
New Transformer.TransLV_Kumasi 1 DT Phases=3 Windings=2
~ Buses=[Bus_16, Bus_Kumasi 1 DT_Consumer] kVA=500 kV=[10, 0.4]
New Transformer.TransLV_Hombori street DT Phases=3 Windings=2
~ Buses=[Bus_4, Bus_Hombori street DT_Consumer] kVA=500 kV=[10, 0.4]
New Transformer.TransLV_Bangui dt Phases=3 Windings=2
~ Buses=[Bus_6, Bus_Bangui dt_Consumer] kVA=500 kV=[10, 0.4]
New Transformer.TransLV_KUMASI (6) DT Phases=3 Windings=2
~ Buses=[Bus_16, Bus_KUMASI (6) DT_Consumer] kVA=500 kV=[10, 0.4]
New Transformer.TransLV_AGADEZ 3 TRANSFORMER Phases=3 Windings=2
~ Buses=[Bus_16, Bus_AGADEZ 3 TRANSFORMER_Consumer] kVA=0 kV=[10, 0.4]
New Transformer.TransLV_COMPACT S/S BY TAPETA BY NO 2 SEGUELA Phases=3 Windings=2
~ Buses=[Bus_7, Bus_COMPACT S/S BY TAPETA BY NO 2 SEGUELA_Consumer] kVA=500 kV=[10, 0.4]
New Transformer.TransLV_PORT ELIZABETH  DT Phases=3 Windings=2
~ Buses=[Bus_9, Bus_PORT ELIZABETH  DT_Consumer] kVA=500 kV=[10, 0.4]
New Transformer.TransLV_WUMBA DUSTBIN DT Phases=3 Windings=2
~ Buses=[Bus_None, Bus_WUMBA DUSTBIN DT_Consumer] kVA=300 kV=[10, 0.4]
New Transformer.TransLV_BANEX JUNCTION COMPACT DT Phases=3 Windings=2
~ Buses=[Bus_13, Bus_BANEX JUNCTION COMPACT DT_Consumer] kVA=500 kV=[10, 0.4]
New Transformer.TransLV_Binos Plaza DT Phases=3 Windings=2
~ Buses=[Bus_None, Bus_Binos Plaza DT_Consumer] kVA=200 kV=[10, 0.4]
New Transformer.TransLV_Urban shelter cluster 2 DT Phases=3 Windings=2
~ Buses=[Bus_None, Bus_Urban shelter cluster 2 DT_Consumer] kVA=1000 kV=[10, 0.4]
New Transformer.TransLV_3rd Avenue Phases=3 Windings=2
~ Buses=[Bus_None, Bus_3rd Avenue_Consumer] kVA=500 kV=[10, 0.4]
New Transformer.TransLV_Efab City Estate DT 8 Phases=3 Windings=2
~ Buses=[Bus_None, Bus_Efab City Estate DT 8_Consumer] kVA=500 kV=[10, 0.4]
New Transformer.TransLV_Mosque DT1 Phases=3 Windings=2
~ Buses=[Bus_None, Bus_Mosque DT1_Consumer] kVA=500 kV=[10, 0.4]
New Transformer.TransLV_1st corner shop Phases=3 Windings=2
~ Buses=[Bus_None, Bus_1st corner shop_Consumer] kVA=500 kV=[10, 0.4]
New Transformer.TransLV_Rd 14 DT1 Phases=3 Windings=2
~ Buses=[Bus_None, Bus_Rd 14 DT1_Consumer] kVA=500 kV=[10, 0.4]
New Transformer.TransLV_Peace Court Estate DT 3 Phases=3 Windings=2
~ Buses=[Bus_None, Bus_Peace Court Estate DT 3_Consumer] kVA=300 kV=[10, 0.4]
New Transformer.TransLV_Nzube Estate DT 3 Phases=3 Windings=2
~ Buses=[Bus_None, Bus_Nzube Estate DT 3_Consumer] kVA=500 kV=[10, 0.4]
New Transformer.TransLV_13 Road Efab City Estate Phases=3 Windings=2
~ Buses=[Bus_None, Bus_13 Road Efab City Estate_Consumer] kVA=500 kV=[10, 0.4]
New Transformer.TransLV_AHMADU BELLO CLOSE DT 1 Phases=3 Windings=2
~ Buses=[Bus_None, Bus_AHMADU BELLO CLOSE DT 1_Consumer] kVA=500 kV=[10, 0.4]
New Transformer.TransLV_Road 12 DT1 Phases=3 Windings=2
~ Buses=[Bus_None, Bus_Road 12 DT1_Consumer] kVA=500 kV=[10, 0.4]
New Transformer.TransLV_Peace Court Estate DT 2 Phases=3 Windings=2
~ Buses=[Bus_None, Bus_Peace Court Estate DT 2_Consumer] kVA=300 kV=[10, 0.4]
New Transformer.TransLV_NZUBE DT2 Phases=3 Windings=2
~ Buses=[Bus_None, Bus_NZUBE DT2_Consumer] kVA=500 kV=[10, 0.4]
New Transformer.TransLV_Muhammedu Bihari DT Phases=3 Windings=2
~ Buses=[Bus_None, Bus_Muhammedu Bihari DT_Consumer] kVA=500 kV=[10, 0.4]
New Transformer.TransLV_Efab Estate DT 1 Phases=3 Windings=2
~ Buses=[Bus_None, Bus_Efab Estate DT 1_Consumer] kVA=500 kV=[10, 0.4]
New Transformer.TransLV_DIG DT1 Phases=3 Windings=2
~ Buses=[Bus_None, Bus_DIG DT1_Consumer] kVA=500 kV=[10, 0.4]
New Transformer.TransLV_Rd 22 DT 1 Phases=3 Windings=2
~ Buses=[Bus_None, Bus_Rd 22 DT 1_Consumer] kVA=500 kV=[10, 0.4]
New Transformer.TransLV_2nd corner shop DT Phases=3 Windings=2
~ Buses=[Bus_None, Bus_2nd corner shop DT_Consumer] kVA=500 kV=[10, 0.4]
New Transformer.TransLV_31 Rd DT Phases=3 Windings=2
~ Buses=[Bus_None, Bus_31 Rd DT_Consumer] kVA=500 kV=[10, 0.4]
New Transformer.TransLV_Nzube 4 Phases=3 Windings=2
~ Buses=[Bus_None, Bus_Nzube 4_Consumer] kVA=300 kV=[10, 0.4]
New Transformer.TransLV_INEC Phases=3 Windings=2
~ Buses=[Bus_6, Bus_INEC_Consumer] kVA=500 kV=[10, 0.4]
New Transformer.TransLV_SHELTER VIEW DT Phases=3 Windings=2
~ Buses=[Bus_None, Bus_SHELTER VIEW DT_Consumer] kVA=500 kV=[10, 0.4]
New Transformer.TransLV_Minfa1 DT 4 Phases=3 Windings=2
~ Buses=[Bus_None, Bus_Minfa1 DT 4_Consumer] kVA=500 kV=[10, 0.4]
New Transformer.TransLV_Abdullahi Attah Plaza DT Phases=3 Windings=2
~ Buses=[Bus_None, Bus_Abdullahi Attah Plaza DT_Consumer] kVA=500 kV=[10, 0.4]
New Transformer.TransLV_CBN quarters DT 6 Phases=3 Windings=2
~ Buses=[Bus_7, Bus_CBN quarters DT 6_Consumer] kVA=500 kV=[10, 0.4]
New Transformer.TransLV_MINFA 1 DT 2 Phases=3 Windings=2
~ Buses=[Bus_None, Bus_MINFA 1 DT 2_Consumer] kVA=500 kV=[10, 0.4]
New Transformer.TransLV_PENT CITY DT 2 Phases=3 Windings=2
~ Buses=[Bus_None, Bus_PENT CITY DT 2_Consumer] kVA=500 kV=[10, 0.4]
New Transformer.TransLV_ROAD 2 DT1 Phases=3 Windings=2
~ Buses=[Bus_None, Bus_ROAD 2 DT1_Consumer] kVA=500 kV=[10, 0.4]
New Transformer.TransLV_Pent ville Estate DT 1 Phases=3 Windings=2
~ Buses=[Bus_None, Bus_Pent ville Estate DT 1_Consumer] kVA=0 kV=[10, 0.4]
New Transformer.TransLV_MINFA 2 ESTATE DT3 Phases=3 Windings=2
~ Buses=[Bus_None, Bus_MINFA 2 ESTATE DT3_Consumer] kVA=500 kV=[10, 0.4]
New Transformer.TransLV_His Grace Pavilion DT2 Phases=3 Windings=2
~ Buses=[Bus_None, Bus_His Grace Pavilion DT2_Consumer] kVA=500 kV=[10, 0.4]
New Transformer.TransLV_Washington DT 2 Phases=3 Windings=2
~ Buses=[Bus_None, Bus_Washington DT 2_Consumer] kVA=500 kV=[10, 0.4]
New Transformer.TransLV_Minfa 2 Estate DT 1 Phases=3 Windings=2
~ Buses=[Bus_None, Bus_Minfa 2 Estate DT 1_Consumer] kVA=500 kV=[10, 0.4]
New Transformer.TransLV_FRSC DT 1 Phases=3 Windings=2
~ Buses=[Bus_None, Bus_FRSC DT 1_Consumer] kVA=500 kV=[10, 0.4]
New Transformer.TransLV_IPENT 3 TR 1 Phases=3 Windings=2
~ Buses=[Bus_None, Bus_IPENT 3 TR 1_Consumer] kVA=500 kV=[10, 0.4]
New Transformer.TransLV_Von Dt Phases=3 Windings=2
~ Buses=[Bus_16, Bus_Von Dt_Consumer] kVA=750 kV=[10, 0.4]
New Transformer.TransLV_CBN QUARTER 1 Phases=3 Windings=2
~ Buses=[Bus_7, Bus_CBN QUARTER 1_Consumer] kVA=500 kV=[10, 0.4]
New Transformer.TransLV_Palmview Core Earth Estate Phases=3 Windings=2
~ Buses=[Bus_None, Bus_Palmview Core Earth Estate_Consumer] kVA=500 kV=[10, 0.4]
New Transformer.TransLV_Minfa 1 Estate DT 1 Phases=3 Windings=2
~ Buses=[Bus_None, Bus_Minfa 1 Estate DT 1_Consumer] kVA=500 kV=[10, 0.4]
New Transformer.TransLV_Saraha estate Dt2 Phases=3 Windings=2
~ Buses=[Bus_None, Bus_Saraha estate Dt2_Consumer] kVA=500 kV=[10, 0.4]
New Transformer.TransLV_Pengasan Estate 3 Phases=3 Windings=2
~ Buses=[Bus_None, Bus_Pengasan Estate 3_Consumer] kVA=500 kV=[10, 0.4]
New Transformer.TransLV_Jubilation better Estate 1 Phases=3 Windings=2
~ Buses=[Bus_None, Bus_Jubilation better Estate 1_Consumer] kVA=500 kV=[10, 0.4]
New Transformer.TransLV_Bentell Gardens Estate DT 1 Phases=3 Windings=2
~ Buses=[Bus_None, Bus_Bentell Gardens Estate DT 1_Consumer] kVA=500 kV=[10, 0.4]
New Transformer.TransLV_MICHVILLE TR 1 Phases=3 Windings=2
~ Buses=[Bus_None, Bus_MICHVILLE TR 1_Consumer] kVA=500 kV=[10, 0.4]
New Transformer.TransLV_Washington DT 1 Phases=3 Windings=2
~ Buses=[Bus_None, Bus_Washington DT 1_Consumer] kVA=500 kV=[10, 0.4]
New Transformer.TransLV_IPENT 4 Estate Phases=3 Windings=2
~ Buses=[Bus_None, Bus_IPENT 4 Estate_Consumer] kVA=500 kV=[10, 0.4]
New Transformer.TransLV_Fafun estate DT Phases=3 Windings=2
~ Buses=[Bus_None, Bus_Fafun estate DT_Consumer] kVA=500 kV=[10, 0.4]
New Transformer.TransLV_IPENT 5 DT Phases=3 Windings=2
~ Buses=[Bus_None, Bus_IPENT 5 DT_Consumer] kVA=500 kV=[10, 0.4]
New Transformer.TransLV_CBN quarters 4 Phases=3 Windings=2
~ Buses=[Bus_7, Bus_CBN quarters 4_Consumer] kVA=500 kV=[10, 0.4]
New Transformer.TransLV_FRSC DT 3 Phases=3 Windings=2
~ Buses=[Bus_None, Bus_FRSC DT 3_Consumer] kVA=500 kV=[10, 0.4]
New Transformer.TransLV_River Valley Estate DT Phases=3 Windings=2
~ Buses=[Bus_None, Bus_River Valley Estate DT_Consumer] kVA=500 kV=[10, 0.4]
New Transformer.TransLV_Pentville Estate DT 4 Phases=3 Windings=2
~ Buses=[Bus_None, Bus_Pentville Estate DT 4_Consumer] kVA=300 kV=[10, 0.4]
New Transformer.TransLV_COPACABANA 1 Phases=3 Windings=2
~ Buses=[Bus_None, Bus_COPACABANA 1_Consumer] kVA=500 kV=[10, 0.4]
New Transformer.TransLV_CBN QUARTER DT 7 Phases=3 Windings=2
~ Buses=[Bus_7, Bus_CBN QUARTER DT 7_Consumer] kVA=500 kV=[10, 0.4]
New Transformer.TransLV_First Generation Estate DT Phases=3 Windings=2
~ Buses=[Bus_None, Bus_First Generation Estate DT_Consumer] kVA=500 kV=[10, 0.4]
New Transformer.TransLV_CITISCAPE DT 1 Phases=3 Windings=2
~ Buses=[Bus_None, Bus_CITISCAPE DT 1_Consumer] kVA=500 kV=[10, 0.4]
New Transformer.TransLV_Citiscape Dt 2 Phases=3 Windings=2
~ Buses=[Bus_None, Bus_Citiscape Dt 2_Consumer] kVA=500 kV=[10, 0.4]
New Transformer.TransLV_CBN Quarters 3 Phases=3 Windings=2
~ Buses=[Bus_7, Bus_CBN Quarters 3_Consumer] kVA=500 kV=[10, 0.4]
New Transformer.TransLV_Abdullahi Attach We Estate Phases=3 Windings=2
~ Buses=[Bus_None, Bus_Abdullahi Attach We Estate_Consumer] kVA=1000 kV=[10, 0.4]
New Transformer.TransLV_Minfa estate DT 2 Phases=3 Windings=2
~ Buses=[Bus_None, Bus_Minfa estate DT 2_Consumer] kVA=500 kV=[10, 0.4]
New Transformer.TransLV_Minfa 1 DT 3 Phases=3 Windings=2
~ Buses=[Bus_None, Bus_Minfa 1 DT 3_Consumer] kVA=500 kV=[10, 0.4]
New Transformer.TransLV_NNPC pension fund Phases=3 Windings=2
~ Buses=[Bus_16, Bus_NNPC pension fund_Consumer] kVA=750 kV=[10, 0.4]
New Transformer.TransLV_BERGER COLOUR WORLD DT Phases=3 Windings=2
~ Buses=[Bus_10, Bus_BERGER COLOUR WORLD DT_Consumer] kVA=200 kV=[10, 0.4]
New Transformer.TransLV_GLORY MOJEC PLAZA Phases=3 Windings=2
~ Buses=[Bus_11, Bus_GLORY MOJEC PLAZA_Consumer] kVA=300 kV=[10, 0.4]
New Transformer.TransLV_Photo gallery DT (47 ADETOKUNBO ADEMOLA) Phases=3 Windings=2
~ Buses=[Bus_6, Bus_Photo gallery DT (47 ADETOKUNBO ADEMOLA)_Consumer] kVA=500 kV=[10, 0.4]
New Transformer.TransLV_Oceanic Catering DT (2 Kolda link Street) Phases=3 Windings=2
~ Buses=[Bus_3, Bus_Oceanic Catering DT (2 Kolda link Street)_Consumer] kVA=500 kV=[10, 0.4]
New Transformer.TransLV_SUPERMARKET 4U DT (58 ADETOKUN ADEMOLA CRESCENT) Phases=3 Windings=2
~ Buses=[Bus_6, Bus_SUPERMARKET 4U DT (58 ADETOKUN ADEMOLA CRESCENT)_Consumer] kVA=200 kV=[10, 0.4]
New Transformer.TransLV_Kolda Link 2 (10 Kolda Link) Phases=3 Windings=2
~ Buses=[Bus_3, Bus_Kolda Link 2 (10 Kolda Link)_Consumer] kVA=500 kV=[10, 0.4]
New Transformer.TransLV_REGENT ESTATE DT Phases=3 Windings=2
~ Buses=[Bus_None, Bus_REGENT ESTATE DT_Consumer] kVA=300 kV=[10, 0.4]
New Transformer.TransLV_Tapeta 3 Private (12 Tapeta Street) Phases=3 Windings=2
~ Buses=[Bus_7, Bus_Tapeta 3 Private (12 Tapeta Street)_Consumer] kVA=300 kV=[10, 0.4]
New Transformer.TransLV_WORLD AID DT Phases=3 Windings=2
~ Buses=[Bus_6, Bus_WORLD AID DT_Consumer] kVA=300 kV=[10, 0.4]
New Transformer.TransLV_C.V.S PLAZA DT (145B ADETOKUNBO ADEMOLA) Phases=3 Windings=2
~ Buses=[Bus_6, Bus_C.V.S PLAZA DT (145B ADETOKUNBO ADEMOLA)_Consumer] kVA=300 kV=[10, 0.4]
New Transformer.TransLV_AGAPE REGENCY HOTEL DT Phases=3 Windings=2
~ Buses=[Bus_16, Bus_AGAPE REGENCY HOTEL DT_Consumer] kVA=300 kV=[10, 0.4]
New Transformer.TransLV_TULIP PLAZA DT Phases=3 Windings=2
~ Buses=[Bus_12, Bus_TULIP PLAZA DT_Consumer] kVA=300 kV=[10, 0.4]
New Transformer.TransLV_FCDA QUARTERS  DT 1 (KASHIM IBRAHIM WAY) Phases=3 Windings=2
~ Buses=[Bus_14, Bus_FCDA QUARTERS  DT 1 (KASHIM IBRAHIM WAY)_Consumer] kVA=500 kV=[10, 0.4]
New Transformer.TransLV_OLD BANEX PLAZA Phases=3 Windings=2
~ Buses=[Bus_15, Bus_OLD BANEX PLAZA_Consumer] kVA=500 kV=[10, 0.4]
New Transformer.TransLV_Banex villa Phases=3 Windings=2
~ Buses=[Bus_15, Bus_Banex villa_Consumer] kVA=500 kV=[10, 0.4]
New Transformer.TransLV_RABERTO SCHOOL Phases=3 Windings=2
~ Buses=[Bus_16, Bus_RABERTO SCHOOL_Consumer] kVA=500 kV=[10, 0.4]
New Transformer.TransLV_FCDA Quarters 2 DT Phases=3 Windings=2
~ Buses=[Bus_11, Bus_FCDA Quarters 2 DT_Consumer] kVA=500 kV=[10, 0.4]
New Transformer.TransLV_Bannex Von DT Phases=3 Windings=2
~ Buses=[Bus_15, Bus_Bannex Von DT_Consumer] kVA=500 kV=[10, 0.4]
New Transformer.TransLV_Gwadal center (FRIA CLOSE) Phases=3 Windings=2
~ Buses=[Bus_3, Bus_Gwadal center (FRIA CLOSE)_Consumer] kVA=300 kV=[10, 0.4]
New Transformer.TransLV_Zenith Bank (Plot 1722 Adetokunbo Ademola) Phases=3 Windings=2
~ Buses=[Bus_5, Bus_Zenith Bank (Plot 1722 Adetokunbo Ademola)_Consumer] kVA=500 kV=[10, 0.4]
New Transformer.TransLV_VINET HOSPITAL DT Phases=3 Windings=2
~ Buses=[Bus_None, Bus_VINET HOSPITAL DT_Consumer] kVA=500 kV=[10, 0.4]
New Transformer.TransLV_Basic Estate 3 Phases=3 Windings=2
~ Buses=[Bus_None, Bus_Basic Estate 3_Consumer] kVA=500 kV=[10, 0.4]
New Transformer.TransLV_American specialist hospital Phases=3 Windings=2
~ Buses=[Bus_3, Bus_American specialist hospital_Consumer] kVA=500 kV=[10, 0.4]
New Transformer.TransLV_DANTATA DT (MORIJA CLOSE) Phases=3 Windings=2
~ Buses=[Bus_6, Bus_DANTATA DT (MORIJA CLOSE)_Consumer] kVA=300 kV=[10, 0.4]
New Transformer.TransLV_Air wave DT Phases=3 Windings=2
~ Buses=[Bus_7, Bus_Air wave DT_Consumer] kVA=300 kV=[10, 0.4]
New Transformer.TransLV_TAKUM TOWER DT (14 SEGUELA STREET) Phases=3 Windings=2
~ Buses=[Bus_7, Bus_TAKUM TOWER DT (14 SEGUELA STREET)_Consumer] kVA=300 kV=[10, 0.4]
New Transformer.TransLV_Barcelona Residence (14 BLANTYRE STREET) Phases=3 Windings=2
~ Buses=[Bus_6, Bus_Barcelona Residence (14 BLANTYRE STREET)_Consumer] kVA=200 kV=[10, 0.4]
New Transformer.TransLV_M.I AHAMAD PLAZA (ADETOKUNBO ADEMOLA) Phases=3 Windings=2
~ Buses=[Bus_2, Bus_M.I AHAMAD PLAZA (ADETOKUNBO ADEMOLA)_Consumer] kVA=500 kV=[10, 0.4]
New Transformer.TransLV_Spectranet DT Phases=3 Windings=2
~ Buses=[Bus_2, Bus_Spectranet DT_Consumer] kVA=300 kV=[10, 0.4]
New Transformer.TransLV_Customer quarter's 2 Phases=3 Windings=2
~ Buses=[Bus_3, Bus_Customer quarter's 2_Consumer] kVA=500 kV=[10, 0.4]
New Transformer.TransLV_ECOBANK DT (112 Adetokunbo Ademola) Phases=3 Windings=2
~ Buses=[Bus_2, Bus_ECOBANK DT (112 Adetokunbo Ademola)_Consumer] kVA=200 kV=[10, 0.4]
New Transformer.TransLV_EDEN PLACE DT Phases=3 Windings=2
~ Buses=[Bus_9, Bus_EDEN PLACE DT_Consumer] kVA=500 kV=[10, 0.4]
New Transformer.TransLV_Rock view Royal hotel 4 Phases=3 Windings=2
~ Buses=[Bus_1, Bus_Rock view Royal hotel 4_Consumer] kVA=500 kV=[10, 0.4]
New Transformer.TransLV_Sakono 1 (12 SAKONO STREET) Phases=3 Windings=2
~ Buses=[Bus_7, Bus_Sakono 1 (12 SAKONO STREET)_Consumer] kVA=500 kV=[10, 0.4]
New Transformer.TransLV_Custom quarters 1 Phases=3 Windings=2
~ Buses=[Bus_3, Bus_Custom quarters 1_Consumer] kVA=300 kV=[10, 0.4]
New Transformer.TransLV_CHECK IN HOTEL (37 DURBAN STREET) Phases=3 Windings=2
~ Buses=[Bus_6, Bus_CHECK IN HOTEL (37 DURBAN STREET)_Consumer] kVA=300 kV=[10, 0.4]
New Transformer.TransLV_Mines and Steels Phases=3 Windings=2
~ Buses=[Bus_3, Bus_Mines and Steels_Consumer] kVA=500 kV=[10, 0.4]
New Transformer.TransLV_Atiku presidential campaign organization building DT Phases=3 Windings=2
~ Buses=[Bus_2, Bus_Atiku presidential campaign organization building DT_Consumer] kVA=500 kV=[10, 0.4]
New Transformer.TransLV_Southern Fried Chicken (4 KOLDA STREET) Phases=3 Windings=2
~ Buses=[Bus_3, Bus_Southern Fried Chicken (4 KOLDA STREET)_Consumer] kVA=300 kV=[10, 0.4]
New Transformer.TransLV_ECWA DT Phases=3 Windings=2
~ Buses=[Bus_7, Bus_ECWA DT_Consumer] kVA=300 kV=[10, 0.4]
New Transformer.TransLV_IMMACULATE DIAMOND HOTEL (110 ADETOKUNBO ADEMOLA) Phases=3 Windings=2
~ Buses=[Bus_6, Bus_IMMACULATE DIAMOND HOTEL (110 ADETOKUNBO ADEMOLA)_Consumer] kVA=300 kV=[10, 0.4]
New Transformer.TransLV_DEDICATED S/S STALLION PROP 1 Phases=3 Windings=2
~ Buses=[Bus_5, Bus_DEDICATED S/S STALLION PROP 1_Consumer] kVA=500 kV=[10, 0.4]
New Transformer.TransLV_KOKKOIES MALL DT (ADETOKUNBO ADEMOLA) Phases=3 Windings=2
~ Buses=[Bus_6, Bus_KOKKOIES MALL DT (ADETOKUNBO ADEMOLA)_Consumer] kVA=500 kV=[10, 0.4]
New Transformer.TransLV_BRICK HOUSE DT (5 MADIANA STREET BESIDE OPEN UNIVERSITY) Phases=3 Windings=2
~ Buses=[Bus_16, Bus_BRICK HOUSE DT (5 MADIANA STREET BESIDE OPEN UNIVERSITY)_Consumer] kVA=500 kV=[10, 0.4]
New Transformer.TransLV_CAIRO 1 (6 CAIRO STREET) Phases=3 Windings=2
~ Buses=[Bus_6, Bus_CAIRO 1 (6 CAIRO STREET)_Consumer] kVA=500 kV=[10, 0.4]
New Transformer.TransLV_ISRAEL PLAZA (NITEL JUNCTION) Phases=3 Windings=2
~ Buses=[Bus_6, Bus_ISRAEL PLAZA (NITEL JUNCTION)_Consumer] kVA=500 kV=[10, 0.4]
New Transformer.TransLV_Salatu Royal Estate 2 Phases=3 Windings=2
~ Buses=[Bus_12, Bus_Salatu Royal Estate 2_Consumer] kVA=500 kV=[10, 0.4]
New Transformer.TransLV_Zion Court (171 Adetokunbo Ademola) Phases=3 Windings=2
~ Buses=[Bus_8, Bus_Zion Court (171 Adetokunbo Ademola)_Consumer] kVA=500 kV=[10, 0.4]
New Transformer.TransLV_STICK & STONE 500KVA Phases=3 Windings=2
~ Buses=[Bus_6, Bus_STICK & STONE 500KVA_Consumer] kVA=500 kV=[10, 0.4]
New Transformer.TransLV_Fadama House Phases=3 Windings=2
~ Buses=[Bus_16, Bus_Fadama House_Consumer] kVA=500 kV=[10, 0.4]
New Transformer.TransLV_THE ULTIMATE MALL ( ADETOKUNBO ADEMOLA) Phases=3 Windings=2
~ Buses=[Bus_6, Bus_THE ULTIMATE MALL ( ADETOKUNBO ADEMOLA)_Consumer] kVA=500 kV=[10, 0.4]
New Transformer.TransLV_Al Noor mosque dt Phases=3 Windings=2
~ Buses=[Bus_3, Bus_Al Noor mosque dt_Consumer] kVA=0 kV=[10, 0.4]
New Transformer.TransLV_Rock view classic 1 Phases=3 Windings=2
~ Buses=[Bus_None, Bus_Rock view classic 1_Consumer] kVA=500 kV=[10, 0.4]
New Transformer.TransLV_ZENITH INSURANCE (CADASTRAL BRANCH) Phases=3 Windings=2
~ Buses=[Bus_6, Bus_ZENITH INSURANCE (CADASTRAL BRANCH)_Consumer] kVA=200 kV=[10, 0.4]
New Transformer.TransLV_CHELSEA HOTEL DT Phases=3 Windings=2
~ Buses=[Bus_5, Bus_CHELSEA HOTEL DT_Consumer] kVA=300 kV=[10, 0.4]
New Transformer.TransLV_TY DANJUMA DT 1 (12 DAR ES SALAAM STREET) Phases=3 Windings=2
~ Buses=[Bus_16, Bus_TY DANJUMA DT 1 (12 DAR ES SALAAM STREET)_Consumer] kVA=500 kV=[10, 0.4]
New Transformer.TransLV_Rock view classic 2 Phases=3 Windings=2
~ Buses=[Bus_1, Bus_Rock view classic 2_Consumer] kVA=500 kV=[10, 0.4]
New Transformer.TransLV_M & G PLAZA (ADETOKUNBO ADEMOLA CRESCENT) Phases=3 Windings=2
~ Buses=[Bus_6, Bus_M & G PLAZA (ADETOKUNBO ADEMOLA CRESCENT)_Consumer] kVA=200 kV=[10, 0.4]
New Transformer.TransLV_BABCOOK GUEST HOUSE DT (11/13 HOMBORI STREET) Phases=3 Windings=2
~ Buses=[Bus_4, Bus_BABCOOK GUEST HOUSE DT (11/13 HOMBORI STREET)_Consumer] kVA=300 kV=[10, 0.4]
New Transformer.TransLV_Bozoum close Phases=3 Windings=2
~ Buses=[Bus_2, Bus_Bozoum close_Consumer] kVA=0 kV=[10, 0.4]
New Transformer.TransLV_OTI CARPET PRIVATE DT (142 ADETOKUNBO ADEMOLA) Phases=3 Windings=2
~ Buses=[Bus_6, Bus_OTI CARPET PRIVATE DT (142 ADETOKUNBO ADEMOLA)_Consumer] kVA=500 kV=[10, 0.4]
New Transformer.TransLV_PRIME ESTATE (Opposite 1 Garawe street off Freetown) Phases=3 Windings=2
~ Buses=[Bus_4, Bus_PRIME ESTATE (Opposite 1 Garawe street off Freetown)_Consumer] kVA=200 kV=[10, 0.4]
New Transformer.TransLV_FOMELLA ( private) Phases=3 Windings=2
~ Buses=[Bus_3, Bus_FOMELLA ( private)_Consumer] kVA=200 kV=[10, 0.4]
New Transformer.TransLV_White House 1014 DT (FRIA CLOSE) Phases=3 Windings=2
~ Buses=[Bus_3, Bus_White House 1014 DT (FRIA CLOSE)_Consumer] kVA=200 kV=[10, 0.4]
New Transformer.TransLV_BARBEDOS DT (PLOT 1095 MAMUO CLOSE) Phases=3 Windings=2
~ Buses=[Bus_3, Bus_BARBEDOS DT (PLOT 1095 MAMUO CLOSE)_Consumer] kVA=200 kV=[10, 0.4]
New Transformer.TransLV_ANGES Plaza 200 KVA (4 SEFADU CLOSE) Phases=3 Windings=2
~ Buses=[Bus_6, Bus_ANGES Plaza 200 KVA (4 SEFADU CLOSE)_Consumer] kVA=300 kV=[10, 0.4]
New Transformer.TransLV_Bond Plaza Phases=3 Windings=2
~ Buses=[Bus_5, Bus_Bond Plaza_Consumer] kVA=500 kV=[10, 0.4]
New Transformer.TransLV_Rock view Royal hotel 1 Phases=3 Windings=2
~ Buses=[Bus_1, Bus_Rock view Royal hotel 1_Consumer] kVA=500 kV=[10, 0.4]
New Transformer.TransLV_POPE JOHN PAUL 11 Phases=3 Windings=2
~ Buses=[Bus_7, Bus_POPE JOHN PAUL 11_Consumer] kVA=300 kV=[10, 0.4]
New Transformer.TransLV_LOBITO MALL DT Phases=3 Windings=2
~ Buses=[Bus_5, Bus_LOBITO MALL DT_Consumer] kVA=200 kV=[10, 0.4]
New Transformer.TransLV_GTCO DT (98 ADETOKUNBO ADEMOLA) Phases=3 Windings=2
~ Buses=[Bus_2, Bus_GTCO DT (98 ADETOKUNBO ADEMOLA)_Consumer] kVA=200 kV=[10, 0.4]
New Transformer.TransLV_109 PLAZA DT (ADETOKUNBO ADEMOLA) Phases=3 Windings=2
~ Buses=[Bus_6, Bus_109 PLAZA DT (ADETOKUNBO ADEMOLA)_Consumer] kVA=200 kV=[10, 0.4]
New Transformer.TransLV_Venus Medicare DT Phases=3 Windings=2
~ Buses=[Bus_2, Bus_Venus Medicare DT_Consumer] kVA=200 kV=[10, 0.4]
New Transformer.TransLV_Omicron property DT (Plot 1193 Takwa Crescent) Phases=3 Windings=2
~ Buses=[Bus_3, Bus_Omicron property DT (Plot 1193 Takwa Crescent)_Consumer] kVA=300 kV=[10, 0.4]
New Transformer.TransLV_Alibert (60 ADETOKUNBO ADEMOLA CRESCENT) Phases=3 Windings=2
~ Buses=[Bus_6, Bus_Alibert (60 ADETOKUNBO ADEMOLA CRESCENT)_Consumer] kVA=300 kV=[10, 0.4]
New Transformer.TransLV_ECOBANK DT (CADASTRAL BRANCH) Phases=3 Windings=2
~ Buses=[Bus_6, Bus_ECOBANK DT (CADASTRAL BRANCH)_Consumer] kVA=200 kV=[10, 0.4]
New Transformer.TransLV_EXCLUSIVE STORE (PLOT 1201 ADETOKUNBO ADEMOLA) Phases=3 Windings=2
~ Buses=[Bus_2, Bus_EXCLUSIVE STORE (PLOT 1201 ADETOKUNBO ADEMOLA)_Consumer] kVA=300 kV=[10, 0.4]
New Transformer.TransLV_UNITRUST NIG. LTD (BRIA STREET) Phases=3 Windings=2
~ Buses=[Bus_7, Bus_UNITRUST NIG. LTD (BRIA STREET)_Consumer] kVA=500 kV=[10, 0.4]
New Transformer.TransLV_PROVIDUS BANK Phases=3 Windings=2
~ Buses=[Bus_3, Bus_PROVIDUS BANK_Consumer] kVA=200 kV=[10, 0.4]
New Transformer.TransLV_FLOORKRAFT DT (16 ADETOKUNBO ADEMOLA) Phases=3 Windings=2
~ Buses=[Bus_3, Bus_FLOORKRAFT DT (16 ADETOKUNBO ADEMOLA)_Consumer] kVA=200 kV=[10, 0.4]
New Transformer.TransLV_ROPP HOUSE ETISALAT Phases=3 Windings=2
~ Buses=[Bus_2, Bus_ROPP HOUSE ETISALAT_Consumer] kVA=750 kV=[10, 0.4]
New Transformer.TransLV_Durban 1 (16 DURBAN STREET) Phases=3 Windings=2
~ Buses=[Bus_6, Bus_Durban 1 (16 DURBAN STREET)_Consumer] kVA=500 kV=[10, 0.4]
New Transformer.TransLV_UBA bank (18 Adetokunbo Ademola Crescent) Phases=3 Windings=2
~ Buses=[Bus_3, Bus_UBA bank (18 Adetokunbo Ademola Crescent)_Consumer] kVA=100 kV=[10, 0.4]
New Transformer.TransLV_FCMB transformer 200KVA (1 Cairo Street) Phases=3 Windings=2
~ Buses=[Bus_6, Bus_FCMB transformer 200KVA (1 Cairo Street)_Consumer] kVA=200 kV=[10, 0.4]
New Transformer.TransLV_CAPPADOR'S PLACE DT (OFF ADEMOLA ADETOKUNBO) Phases=3 Windings=2
~ Buses=[Bus_6, Bus_CAPPADOR'S PLACE DT (OFF ADEMOLA ADETOKUNBO)_Consumer] kVA=200 kV=[10, 0.4]
New Transformer.TransLV_NEMSAS ( NHIS Anne's) Phases=3 Windings=2
~ Buses=[Bus_3, Bus_NEMSAS ( NHIS Anne's)_Consumer] kVA=300 kV=[10, 0.4]
New Transformer.TransLV_PRIME PLAZA Phases=3 Windings=2
~ Buses=[Bus_2, Bus_PRIME PLAZA_Consumer] kVA=500 kV=[10, 0.4]
New Transformer.TransLV_OLIVE PLAZA (11 Alexandria Crescent) Phases=3 Windings=2
~ Buses=[Bus_11, Bus_OLIVE PLAZA (11 Alexandria Crescent)_Consumer] kVA=500 kV=[10, 0.4]
New Transformer.TransLV_Mahamud and co law firm (9 BOZOUM STREET) Phases=3 Windings=2
~ Buses=[Bus_2, Bus_Mahamud and co law firm (9 BOZOUM STREET)_Consumer] kVA=200 kV=[10, 0.4]
New Transformer.TransLV_Upigham DT (3 Luanda crescent) Phases=3 Windings=2
~ Buses=[Bus_3, Bus_Upigham DT (3 Luanda crescent)_Consumer] kVA=300 kV=[10, 0.4]
New Transformer.TransLV_CHILDREN AFFAIRS (3 KOLDA STREET) Phases=3 Windings=2
~ Buses=[Bus_8, Bus_CHILDREN AFFAIRS (3 KOLDA STREET)_Consumer] kVA=100 kV=[10, 0.4]
New Transformer.TransLV_GOVERNMENT DAY SECONDARY SCHOOL (152 ADETOKUNBO ADEMOLA) Phases=3 Windings=2
~ Buses=[Bus_6, Bus_GOVERNMENT DAY SECONDARY SCHOOL (152 ADETOKUNBO ADEMOLA)_Consumer] kVA=500 kV=[10, 0.4]
New Transformer.TransLV_Garkida Press DT Phases=3 Windings=2
~ Buses=[Bus_11, Bus_Garkida Press DT_Consumer] kVA=300 kV=[10, 0.4]
New Transformer.TransLV_KOLDA LINK 1 (15 KOLDA LINK) Phases=3 Windings=2
~ Buses=[Bus_3, Bus_KOLDA LINK 1 (15 KOLDA LINK)_Consumer] kVA=300 kV=[10, 0.4]
New Transformer.TransLV_Zenith Bank (65 Adetokunbo Ademola) Phases=3 Windings=2
~ Buses=[Bus_6, Bus_Zenith Bank (65 Adetokunbo Ademola)_Consumer] kVA=200 kV=[10, 0.4]
New Transformer.TransLV_Rural Electrification Agency (22 Freetown street) Phases=3 Windings=2
~ Buses=[Bus_3, Bus_Rural Electrification Agency (22 Freetown street)_Consumer] kVA=200 kV=[10, 0.4]
New Transformer.TransLV_YAYA ABUBAKA PRIVATE DT (6 TAPETA, STREET) Phases=3 Windings=2
~ Buses=[Bus_7, Bus_YAYA ABUBAKA PRIVATE DT (6 TAPETA, STREET)_Consumer] kVA=500 kV=[10, 0.4]
New Transformer.TransLV_BUA COURT DT Phases=3 Windings=2
~ Buses=[Bus_16, Bus_BUA COURT DT_Consumer] kVA=500 kV=[10, 0.4]
New Transformer.TransLV_STALLION COURT (BLANTYRE STREET) Phases=3 Windings=2
~ Buses=[Bus_7, Bus_STALLION COURT (BLANTYRE STREET)_Consumer] kVA=500 kV=[10, 0.4]
New Transformer.TransLV_ACCESS BANK (54 ADETOKUNBO ADEMOLA CRESCENT) Phases=3 Windings=2
~ Buses=[Bus_6, Bus_ACCESS BANK (54 ADETOKUNBO ADEMOLA CRESCENT)_Consumer] kVA=100 kV=[10, 0.4]
New Transformer.TransLV_Salatu Royal Estate 1 Phases=3 Windings=2
~ Buses=[Bus_12, Bus_Salatu Royal Estate 1_Consumer] kVA=500 kV=[10, 0.4]
New Transformer.TransLV_SUNSET PLACE (OFF ADEMOLA ADETOKUNBO) Phases=3 Windings=2
~ Buses=[Bus_6, Bus_SUNSET PLACE (OFF ADEMOLA ADETOKUNBO)_Consumer] kVA=200 kV=[10, 0.4]
New Transformer.TransLV_Pent City Estate DT 1 Phases=3 Windings=2
~ Buses=[Bus_None, Bus_Pent City Estate DT 1_Consumer] kVA=50 kV=[10, 0.4]
New Transformer.TransLV_DRUM STICK DT Phases=3 Windings=2
~ Buses=[Bus_11, Bus_DRUM STICK DT_Consumer] kVA=200 kV=[10, 0.4]
New Transformer.TransLV_MISRATAH 1  DT Phases=3 Windings=2
~ Buses=[Bus_9, Bus_MISRATAH 1  DT_Consumer] kVA=500 kV=[10, 0.4]
New Transformer.TransLV_Furniture house compact Phases=3 Windings=2
~ Buses=[Bus_13, Bus_Furniture house compact_Consumer] kVA=500 kV=[10, 0.4]
New Transformer.TransLV_Kumasi DT 3 Phases=3 Windings=2
~ Buses=[Bus_16, Bus_Kumasi DT 3_Consumer] kVA=500 kV=[10, 0.4]
New Transformer.TransLV_Kumasi 5 Phases=3 Windings=2
~ Buses=[Bus_16, Bus_Kumasi 5_Consumer] kVA=500 kV=[10, 0.4]
New Transformer.TransLV_COMPACT DT BY TURKISH JUNCTION (AHMADU BELLO WAY) Phases=3 Windings=2
~ Buses=[Bus_9, Bus_COMPACT DT BY TURKISH JUNCTION (AHMADU BELLO WAY)_Consumer] kVA=500 kV=[10, 0.4]
New Transformer.TransLV_DARE SALAAM dt Phases=3 Windings=2
~ Buses=[Bus_16, Bus_DARE SALAAM dt_Consumer] kVA=500 kV=[10, 0.4]
New Transformer.TransLV_AGADES 3 (20 AGADES STREET) Phases=3 Windings=2
~ Buses=[Bus_16, Bus_AGADES 3 (20 AGADES STREET)_Consumer] kVA=500 kV=[10, 0.4]
New Transformer.TransLV_Compact/Blue Plaza DT (167 ADETOKUNBO ADEMOLA) Phases=3 Windings=2
~ Buses=[Bus_8, Bus_Compact/Blue Plaza DT (167 ADETOKUNBO ADEMOLA)_Consumer] kVA=500 kV=[10, 0.4]
New Transformer.TransLV_COMPACT DT OPPOSITE HYDE FILLING STATION (AMINU KANO CRESCENT) Phases=3 Windings=2
~ Buses=[Bus_9, Bus_COMPACT DT OPPOSITE HYDE FILLING STATION (AMINU KANO CRESCENT)_Consumer] kVA=500 kV=[10, 0.4]
New Transformer.TransLV_Pencom Compact DT Phases=3 Windings=2
~ Buses=[Bus_2, Bus_Pencom Compact DT_Consumer] kVA=500 kV=[10, 0.4]
New Transformer.TransLV_AGADES 4 (IN FRONT OF MUDASSIR AND BROTHERS) Phases=3 Windings=2
~ Buses=[Bus_16, Bus_AGADES 4 (IN FRONT OF MUDASSIR AND BROTHERS)_Consumer] kVA=500 kV=[10, 0.4]
New Transformer.TransLV_AGADES 2 (37 AGADES STREET) Phases=3 Windings=2
~ Buses=[Bus_16, Bus_AGADES 2 (37 AGADES STREET)_Consumer] kVA=500 kV=[10, 0.4]
New Transformer.TransLV_COMPACT DT BY SWITZERLAND EMBASSY (157 ADETOKUMBO ADEMOLA CRESCENT) Phases=3 Windings=2
~ Buses=[Bus_8, Bus_COMPACT DT BY SWITZERLAND EMBASSY (157 ADETOKUMBO ADEMOLA CRESCENT)_Consumer] kVA=500 kV=[10, 0.4]
New Transformer.TransLV_Spring Meadow DT 2 Phases=3 Windings=2
~ Buses=[Bus_None, Bus_Spring Meadow DT 2_Consumer] kVA=500 kV=[10, 0.4]
New Transformer.TransLV_CIL GOBAL ENTERPRISE LIMITED (3 KUMASI CRESCENT) Phases=3 Windings=2
~ Buses=[Bus_16, Bus_CIL GOBAL ENTERPRISE LIMITED (3 KUMASI CRESCENT)_Consumer] kVA=300 kV=[10, 0.4]
New Transformer.TransLV_DEDICATED SUBSTATION EMAB PLAZA Phases=3 Windings=2
~ Buses=[Bus_None, Bus_DEDICATED SUBSTATION EMAB PLAZA_Consumer] kVA=500 kV=[10, 0.4]
New Transformer.TransLV_EMBU/MAKURU CLOSE (2 MAKURU STREET JUNCTION) Phases=3 Windings=2
~ Buses=[Bus_16, Bus_EMBU/MAKURU CLOSE (2 MAKURU STREET JUNCTION)_Consumer] kVA=500 kV=[10, 0.4]
New Transformer.TransLV_Avenue 21 Phases=3 Windings=2
~ Buses=[Bus_6, Bus_Avenue 21_Consumer] kVA=200 kV=[10, 0.4]
New Transformer.TransLV_HILLTOP APARTMENTS DT (3 PAKALI CLOSE) Phases=3 Windings=2
~ Buses=[Bus_16, Bus_HILLTOP APARTMENTS DT (3 PAKALI CLOSE)_Consumer] kVA=500 kV=[10, 0.4]
New Transformer.TransLV_SIGMA APARTMENT (1 EMBU STREET) Phases=3 Windings=2
~ Buses=[Bus_16, Bus_SIGMA APARTMENT (1 EMBU STREET)_Consumer] kVA=None kV=[10, 0.4]
New Transformer.TransLV_Global Millennium Estate DT 2 Phases=3 Windings=2
~ Buses=[Bus_None, Bus_Global Millennium Estate DT 2_Consumer] kVA=500 kV=[10, 0.4]
New Transformer.TransLV_GOMBE JEWEL HOTEL (22 NDJAMENA CRESCENT) Phases=3 Windings=2
~ Buses=[Bus_14, Bus_GOMBE JEWEL HOTEL (22 NDJAMENA CRESCENT)_Consumer] kVA=500 kV=[10, 0.4]
New Transformer.TransLV_NDJAMENA DT (BESIDE GCL PLAZA) Phases=3 Windings=2
~ Buses=[Bus_11, Bus_NDJAMENA DT (BESIDE GCL PLAZA)_Consumer] kVA=500 kV=[10, 0.4]
New Transformer.TransLV_KAMPALA COMPACT PUBLIC DT (28 KAMPALA STREET) Phases=3 Windings=2
~ Buses=[Bus_6, Bus_KAMPALA COMPACT PUBLIC DT (28 KAMPALA STREET)_Consumer] kVA=500 kV=[10, 0.4]
New Transformer.TransLV_ASCON FILLING STATION (ETERNA FILLING STATION) Phases=3 Windings=2
~ Buses=[Bus_8, Bus_ASCON FILLING STATION (ETERNA FILLING STATION)_Consumer] kVA=200 kV=[10, 0.4]
New Transformer.TransLV_TRANSPORT QUARTERS (3 Youkou Street) Phases=3 Windings=2
~ Buses=[Bus_11, Bus_TRANSPORT QUARTERS (3 Youkou Street)_Consumer] kVA=500 kV=[10, 0.4]
New Transformer.TransLV_Al Noor Mosque Private DT Phases=3 Windings=2
~ Buses=[Bus_3, Bus_Al Noor Mosque Private DT_Consumer] kVA=500 kV=[10, 0.4]
New Transformer.TransLV_YASUHA PLAZA (BOZOUM CLOSE) Phases=3 Windings=2
~ Buses=[Bus_2, Bus_YASUHA PLAZA (BOZOUM CLOSE)_Consumer] kVA=300 kV=[10, 0.4]
New Transformer.TransLV_Custom Quarters DT (12 NDJAMENA CRESCENT) Phases=3 Windings=2
~ Buses=[Bus_11, Bus_Custom Quarters DT (12 NDJAMENA CRESCENT)_Consumer] kVA=500 kV=[10, 0.4]
New Transformer.TransLV_CHICKEN REPUBLIC (114 AMINU KANO CRESCENT BESIDE KFC) Phases=3 Windings=2
~ Buses=[Bus_16, Bus_CHICKEN REPUBLIC (114 AMINU KANO CRESCENT BESIDE KFC)_Consumer] kVA=100 kV=[10, 0.4]
New Transformer.TransLV_Ruby private DT Phases=3 Windings=2
~ Buses=[Bus_12, Bus_Ruby private DT_Consumer] kVA=300 kV=[10, 0.4]
New Transformer.TransLV_Pencom ( private TR) Phases=3 Windings=2
~ Buses=[Bus_2, Bus_Pencom ( private TR)_Consumer] kVA=500 kV=[10, 0.4]
New Transformer.TransLV_Zenith Bank (plot 168 Aminu Kano) Phases=3 Windings=2
~ Buses=[Bus_13, Bus_Zenith Bank (plot 168 Aminu Kano)_Consumer] kVA=100 kV=[10, 0.4]
New Transformer.TransLV_Furniture house DT Phases=3 Windings=2
~ Buses=[Bus_None, Bus_Furniture house DT_Consumer] kVA=500 kV=[10, 0.4]
New Transformer.TransLV_DEDICATED  SUBST SAHAM PLAZA Phases=3 Windings=2
~ Buses=[Bus_None, Bus_DEDICATED  SUBST SAHAM PLAZA_Consumer] kVA=300 kV=[10, 0.4]
New Transformer.TransLV_NURNBERGER PLAZA (ADETOKUNBO ADEOMOLA) Phases=3 Windings=2
~ Buses=[Bus_5, Bus_NURNBERGER PLAZA (ADETOKUNBO ADEOMOLA)_Consumer] kVA=500 kV=[10, 0.4]
New Transformer.TransLV_Globus Bank (45 ADETOKUNBO ADEMOLA CRESCENT) Phases=3 Windings=2
~ Buses=[Bus_6, Bus_Globus Bank (45 ADETOKUNBO ADEMOLA CRESCENT)_Consumer] kVA=100 kV=[10, 0.4]
New Transformer.TransLV_Peniel Apartments Phases=3 Windings=2
~ Buses=[Bus_8, Bus_Peniel Apartments_Consumer] kVA=1500 kV=[10, 0.4]
New Transformer.TransLV_Chicken Republic by banex Phases=3 Windings=2
~ Buses=[Bus_13, Bus_Chicken Republic by banex_Consumer] kVA=100 kV=[10, 0.4]
New Transformer.TransLV_Airtel DT Phases=3 Windings=2
~ Buses=[Bus_12, Bus_Airtel DT_Consumer] kVA=200 kV=[10, 0.4]
New Transformer.TransLV_CBN ITI GUEST HOUSE DT Phases=3 Windings=2
~ Buses=[Bus_13, Bus_CBN ITI GUEST HOUSE DT_Consumer] kVA=500 kV=[10, 0.4]
New Transformer.TransLV_Chicken Republic Phases=3 Windings=2
~ Buses=[Bus_2, Bus_Chicken Republic_Consumer] kVA=100 kV=[10, 0.4]
New Transformer.TransLV_Zenith bank DT(116 aminu kano crescent) Phases=3 Windings=2
~ Buses=[Bus_16, Bus_Zenith bank DT(116 aminu kano crescent)_Consumer] kVA=200 kV=[10, 0.4]
New Transformer.TransLV_Redeemer's Private School Phases=3 Windings=2
~ Buses=[Bus_16, Bus_Redeemer's Private School_Consumer] kVA=500 kV=[10, 0.4]
New Transformer.TransLV_Abuja Preparatory School (95 Aminu Kano Crescent) Phases=3 Windings=2
~ Buses=[Bus_14, Bus_Abuja Preparatory School (95 Aminu Kano Crescent)_Consumer] kVA=300 kV=[10, 0.4]
New Transformer.TransLV_Art tech district Phases=3 Windings=2
~ Buses=[Bus_4, Bus_Art tech district_Consumer] kVA=300 kV=[10, 0.4]
New Transformer.TransLV_Globacom Regional Office (13 KOLDA LINK) Phases=3 Windings=2
~ Buses=[Bus_3, Bus_Globacom Regional Office (13 KOLDA LINK)_Consumer] kVA=1000 kV=[10, 0.4]
New Transformer.TransLV_Lobito 1 Phases=3 Windings=2
~ Buses=[Bus_5, Bus_Lobito 1_Consumer] kVA=500 kV=[10, 0.4]
New Transformer.TransLV_DILIC HOTEL Phases=3 Windings=2
~ Buses=[Bus_2, Bus_DILIC HOTEL_Consumer] kVA=300 kV=[10, 0.4]
New Transformer.TransLV_CASALINDA HOTEL Phases=3 Windings=2
~ Buses=[Bus_2, Bus_CASALINDA HOTEL_Consumer] kVA=300 kV=[10, 0.4]
New Transformer.TransLV_CBN Quarters 2 Phases=3 Windings=2
~ Buses=[Bus_7, Bus_CBN Quarters 2_Consumer] kVA=500 kV=[10, 0.4]
New Transformer.TransLV_Valencia Hotels Phases=3 Windings=2
~ Buses=[Bus_7, Bus_Valencia Hotels_Consumer] kVA=500 kV=[10, 0.4]
New Transformer.TransLV_Hotel de horizon DT Phases=3 Windings=2
~ Buses=[Bus_13, Bus_Hotel de horizon DT_Consumer] kVA=500 kV=[10, 0.4]
New Transformer.TransLV_BERGER PAINT PLAZA Phases=3 Windings=2
~ Buses=[Bus_11, Bus_BERGER PAINT PLAZA_Consumer] kVA=500 kV=[10, 0.4]
New Transformer.TransLV_IHS DT Phases=3 Windings=2
~ Buses=[Bus_16, Bus_IHS DT_Consumer] kVA=500 kV=[10, 0.4]
New Transformer.TransLV_ECOWAS DT Phases=3 Windings=2
~ Buses=[Bus_9, Bus_ECOWAS DT_Consumer] kVA=500 kV=[10, 0.4]
New Transformer.TransLV_KUDANG DT Phases=3 Windings=2
~ Buses=[Bus_12, Bus_KUDANG DT_Consumer] kVA=500 kV=[10, 0.4]
New Transformer.TransLV_GLOBACOM DT (115 Aminu Kano Crescent) Phases=3 Windings=2
~ Buses=[Bus_14, Bus_GLOBACOM DT (115 Aminu Kano Crescent)_Consumer] kVA=200 kV=[10, 0.4]
New Transformer.TransLV_Salini DT (12 BLANTYRE STREET) Phases=3 Windings=2
~ Buses=[Bus_6, Bus_Salini DT (12 BLANTYRE STREET)_Consumer] kVA=100 kV=[10, 0.4]
New Transformer.TransLV_City Park DT (Plot 131a ADETOKUNBO ADEMOLA) Phases=3 Windings=2
~ Buses=[Bus_6, Bus_City Park DT (Plot 131a ADETOKUNBO ADEMOLA)_Consumer] kVA=200 kV=[10, 0.4]
New Transformer.TransLV_BRENDFORT HOTEL (4 MAMUO CLOSE) Phases=3 Windings=2
~ Buses=[Bus_3, Bus_BRENDFORT HOTEL (4 MAMUO CLOSE)_Consumer] kVA=100 kV=[10, 0.4]
New Transformer.TransLV_Saidi Homes (20 KOLDA LINK) Phases=3 Windings=2
~ Buses=[Bus_3, Bus_Saidi Homes (20 KOLDA LINK)_Consumer] kVA=100 kV=[10, 0.4]
New Transformer.TransLV_BOCONCEPT DT (37/37B ADETOKUN ADEMOLA CRESCENT) Phases=3 Windings=2
~ Buses=[Bus_6, Bus_BOCONCEPT DT (37/37B ADETOKUN ADEMOLA CRESCENT)_Consumer] kVA=100 kV=[10, 0.4]
New Transformer.TransLV_GREECE EMBASSY (6 SEGUELA STREET) Phases=3 Windings=2
~ Buses=[Bus_7, Bus_GREECE EMBASSY (6 SEGUELA STREET)_Consumer] kVA=100 kV=[10, 0.4]
New Transformer.TransLV_FOMELLA private TR Phases=3 Windings=2
~ Buses=[Bus_3, Bus_FOMELLA private TR_Consumer] kVA=100 kV=[10, 0.4]
New Transformer.TransLV_FCDA QUARTER DT 8 NDJAMENA CRESCENT Phases=3 Windings=2
~ Buses=[Bus_11, Bus_FCDA QUARTER DT 8 NDJAMENA CRESCENT_Consumer] kVA=500 kV=[10, 0.4]
New Transformer.TransLV_MAP U INVESTMENT DT (PLOT 95 AMINU KANO) Phases=3 Windings=2
~ Buses=[Bus_12, Bus_MAP U INVESTMENT DT (PLOT 95 AMINU KANO)_Consumer] kVA=300 kV=[10, 0.4]
New Transformer.TransLV_ICICE CONSTRUCTION DT Phases=3 Windings=2
~ Buses=[Bus_3, Bus_ICICE CONSTRUCTION DT_Consumer] kVA=100 kV=[10, 0.4]
New Transformer.TransLV_SHEHU DT(100kva pole) Phases=3 Windings=2
~ Buses=[Bus_3, Bus_SHEHU DT(100kva pole)_Consumer] kVA=100 kV=[10, 0.4]
New Transformer.TransLV_DONALD DT (15C NDJAMENA CRESCENT) Phases=3 Windings=2
~ Buses=[Bus_14, Bus_DONALD DT (15C NDJAMENA CRESCENT)_Consumer] kVA=100 kV=[10, 0.4]
New Transformer.TransLV_DEDICATED TRANSFORMER BY EASTLY PARK PLAZA Phases=3 Windings=2
~ Buses=[Bus_14, Bus_DEDICATED TRANSFORMER BY EASTLY PARK PLAZA_Consumer] kVA=300 kV=[10, 0.4]
New Transformer.TransLV_ACCESS BANK (54 AMINU KANO CRESCENT) Phases=3 Windings=2
~ Buses=[Bus_14, Bus_ACCESS BANK (54 AMINU KANO CRESCENT)_Consumer] kVA=100 kV=[10, 0.4]
New Transformer.TransLV_UBA DT(104 Aminu kano crescent) Phases=3 Windings=2
~ Buses=[Bus_14, Bus_UBA DT(104 Aminu kano crescent)_Consumer] kVA=200 kV=[10, 0.4]
New Transformer.TransLV_ALHAJI GARUBA AHMED DT (6 ELDORET CLOSE OFF AMINU KANO CRESCENT) Phases=3 Windings=2
~ Buses=[Bus_16, Bus_ALHAJI GARUBA AHMED DT (6 ELDORET CLOSE OFF AMINU KANO CRESCENT)_Consumer] kVA=100 kV=[10, 0.4]
New Transformer.TransLV_ZOOM SWITCH (8 TOMASINA STREET) Phases=3 Windings=2
~ Buses=[Bus_6, Bus_ZOOM SWITCH (8 TOMASINA STREET)_Consumer] kVA=200 kV=[10, 0.4]
New Transformer.TransLV_Kumasi Private DT Phases=3 Windings=2
~ Buses=[Bus_16, Bus_Kumasi Private DT_Consumer] kVA=300 kV=[10, 0.4]
New Transformer.TransLV_FCDA QUARTERS (PLOT 182 AMINU KANO CRESCENT BY KUMASI CRESCENT) Phases=3 Windings=2
~ Buses=[Bus_16, Bus_FCDA QUARTERS (PLOT 182 AMINU KANO CRESCENT BY KUMASI CRESCENT)_Consumer] kVA=500 kV=[10, 0.4]
New Transformer.TransLV_A CLASS PARK AND EVENT DT Phases=3 Windings=2
~ Buses=[Bus_12, Bus_A CLASS PARK AND EVENT DT_Consumer] kVA=300 kV=[10, 0.4]
New Transformer.TransLV_1ST FORTY HOTEL DT Phases=3 Windings=2
~ Buses=[Bus_None, Bus_1ST FORTY HOTEL DT_Consumer] kVA=500 kV=[10, 0.4]
New Transformer.TransLV_OMEGA CENTRE PLAZA Phases=3 Windings=2
~ Buses=[Bus_12, Bus_OMEGA CENTRE PLAZA_Consumer] kVA=1000 kV=[10, 0.4]
New Transformer.TransLV_DAHAM DT( LUXURY LIGHT PLAZA) Phases=3 Windings=2
~ Buses=[Bus_11, Bus_DAHAM DT( LUXURY LIGHT PLAZA)_Consumer] kVA=300 kV=[10, 0.4]
New Transformer.TransLV_MEDALLION COMM Phases=3 Windings=2
~ Buses=[Bus_3, Bus_MEDALLION COMM_Consumer] kVA=200 kV=[10, 0.4]
New Transformer.TransLV_PRINCESS TERIESTER ESTATE (25 NDJAMENA CRESCENT) Phases=3 Windings=2
~ Buses=[Bus_14, Bus_PRINCESS TERIESTER ESTATE (25 NDJAMENA CRESCENT)_Consumer] kVA=300 kV=[10, 0.4]
New Transformer.TransLV_NANA PLAZA DT ( NO 78  AMINU KANO CRESENT) Phases=3 Windings=2
~ Buses=[Bus_14, Bus_NANA PLAZA DT ( NO 78  AMINU KANO CRESENT)_Consumer] kVA=300 kV=[10, 0.4]
New Transformer.TransLV_TRANSFORMER BY GCL PLAZA Phases=3 Windings=2
~ Buses=[Bus_None, Bus_TRANSFORMER BY GCL PLAZA_Consumer] kVA=500 kV=[10, 0.4]
New Transformer.TransLV_VINTAGE HUBB DT (135 ADETOKUN ADEMOLA CRESCENT) Phases=3 Windings=2
~ Buses=[Bus_6, Bus_VINTAGE HUBB DT (135 ADETOKUN ADEMOLA CRESCENT)_Consumer] kVA=200 kV=[10, 0.4]
New Transformer.TransLV_FERMA HEAD QUARTERS DT (163 AMINU KANO CRESCENT OPPOSITE SUNTRUST BANK) Phases=3 Windings=2
...